306 Power Project -kimi k3-v4/results/presentation/emergency/branch_results.csv
Case_ID,Branch,Voltage_kV,Rating_MVA,Loading_pct_or_MW,Path_modelled
E1_GAT_BACKFEED,GSUT_10BAT10,230/22,515.000000,0.000000,1.000000
E1_GAT_BACKFEED,UAT_10BBT10,22/6.9,25.000000,0.000000,1.000000
E1_GAT_BACKFEED,GAT_10BBT20,230/6.9,25.000000,65.882353,1.000000
E1_GAT_BACKFEED,GRID_IMPORT,230kV,,14.059630,1.000000
E2_GSUT_UAT_BACKFEED,GSUT_10BAT10,230/22,515.000000,3.198172,1.000000
E2_GSUT_UAT_BACKFEED,UAT_10BBT10,22/6.9,25.000000,65.882353,1.000000
E2_GSUT_UAT_BACKFEED,GAT_10BBT20,230/6.9,25.000000,0.000000,1.000000
E2_GSUT_UAT_BACKFEED,GRID_IMPORT,230kV,,14.048642,1.000000
E3_PARALLEL_BACKFEED,GSUT_10BAT10,230/22,515.000000,1.599086,1.000000
E3_PARALLEL_BACKFEED,UAT_10BBT10,22/6.9,25.000000,32.941176,1.000000
E3_PARALLEL_BACKFEED,GAT_10BBT20,230/6.9,25.000000,32.941176,1.000000
E3_PARALLEL_BACKFEED,GRID_IMPORT,230kV,,14.025898,1.000000
E4_BLACKOUT,GSUT_10BAT10,230/22,515.000000,0.000000,0.000000
E4_BLACKOUT,UAT_10BBT10,22/6.9,25.000000,0.000000,0.000000
E4_BLACKOUT,GAT_10BBT20,230/6.9,25.000000,0.000000,0.000000
E4_BLACKOUT,GRID_IMPORT,230kV,,0.000000,0.000000
E5_GAT_CHARGER_OUT,GSUT_10BAT10,230/22,515.000000,0.000000,1.000000
E5_GAT_CHARGER_OUT,UAT_10BBT10,22/6.9,25.000000,0.000000,1.000000
E5_GAT_CHARGER_OUT,GAT_10BBT20,230/6.9,25.000000,65.882353,1.000000
E5_GAT_CHARGER_OUT,GRID_IMPORT,230kV,,14.059630,1.000000
